*==========================================================
* ON Semiconductor LM393
*
* This model was developed by:
* AEI Systems, LLC
* 5777 W. Century Blvd. Suite 1160
* Los Angeles, California 90045
* Copyright 2015, All Rights Reserved.
*
* This model is subject to change without notice.
* Users may not directly or indirectly re-sell or
* re-distribute this model. This model may not
* be used, modified, or altered
* without the consent of AEi Systems.
*
* For more information regarding modeling services,
* model libraries and simulation products, please
* call AEi Systems at (310) 216-1144, or contact
* AEi by email: info@aeng.com. http://www.AENG.com
*
* $Revision:   1.0b  $
* $Author:   C.E. HYMOWITZ  $
* $Date:     8 May 2016 20:00:00  $
*==========================================================
*$
.SUBCKT LM393 neg pos +Vcc -Vcc Vout
*             | | | | |
*             | | | | Output Open Collector
*             | | | Negative Supply or Ground
*             | | Positive Supply
*             | Inverting Input
*             Non-inverting Input
*
*
* The following comparators are covered by this model:
*      LM393
*
* Date of model creation: 5-8-2016_6:00:00_PM
*
* Revision History:
*      REV A: 8 May 2016, Initial Input
*      REV B: 27 June 2016
*      REV C: 31 July 2016
*
*
*
* Recommendations:
*      Use PSPICE (or SPICE 2G6; other simulators may require translation)
*      For a quick, effective design, use a combination of: data sheet
*            specs, bench testing, and simulations with this macromodel
*      For high impedance circuits, set GMIN=100F in the .OPTIONS statement
*
* Supported:
*      Typical performance for temperature range (0 to 70) degrees Celsius
*      DC & Transient analyses.
*      Most specs, including: offsets, input impedance,
*            open loop gain, voltage ranges, supply current, ... , etc.
*      Temperature effects for Ibias, Iquiescent, & Vsat
*
* Not Supported:
*      Some Variation in specs vs. Power Supply Voltage
*      Vos distribution, Ib distribution for Monte Carlo
*      Distortion (detailed non-linear behaviour)
*      Some Temperature analysis
*      Process variation
*      Behaviour outside normal operating region
*      Operation as an amplifier
*
$CDNENCSTART
eee8c5c7a2bc4b01f045f303678664e7916da0bae22e8cb0bba041dd67c69ce448ea70148a9ac1670c8926c1ac5057c8ccfcd77bf87ca9dc30ec259bf1d37b8b
282c6ad581f89e46118c532c51eaced0b58937d5c381341a5fa5692fa00e15dfbf97e9cc400bbd5b1a0f4f711a1db5f52c97484dd1a20624e793d9102fa555a3
76772fcaed53044f6f31076d2b37e96bb58937d5c381341a5fa5692fa00e15dfbf97e9cc400bbd5b1a0f4f711a1db5f52c97484dd1a20624e793d9102fa555a3
2be465b6ad4cad1ca71cc1b59a10e9037fa9da3d151000fcbe1c12db7e32fbebf02b09116a7122acb2c8e92c1c352ef4b835e6cd623a2023288b5cb125be07dd
db31c8ccd2fb318ff45310c19b6b8ee559f616b93b38d33c0308484362f2ed78bf0faaedfc875062a86e643263d0b5f75f68e9d77354652d1a964c544a83d8a0
3932f520130e842ea71cc1b59a10e9035612731c1899ee6a63a99c18378328bcf02b09116a7122acb2c8e92c1c352ef4b835e6cd623a2023288b5cb125be07dd
bfc9f1a18d2eda1cbfb31f27af21c96eadfe2689dbd1cbc8b5a66fa6cc68bc9a5eb2fd6193036f90d9d14c243c85e875a2bcfa336bc8d6fa79370265d0e954d6
0ab7b93a7ec6d416a0062141238b855cfbac274d56622b5e973f27bf13045b53bf0faaedfc875062a86e643263d0b5f75f68e9d77354652d1a964c544a83d8a0
f0da0fe8e9949e3fba5eaa4b68130358f4c3b7c7dbd89947cd3e984f262414e0073898a1d16fb9f4fad40957470fd657e033f6c801a78952444d59d1ccc3c98d
93b55fc6e63e8eddf45310c19b6b8ee5c867144c2c5de019023040ee326785814d4decb58836e9fb3f9ffd395b484d16a5443d932084ea89ef2ea322ab2c09db
6a1fa4ac0de87e33f45310c19b6b8ee502392b30032bf44c023040ee326785814d4decb58836e9fb3f9ffd395b484d16a5443d932084ea89ef2ea322ab2c09db
42cad0d02e943b3cd6bd78cbde01efd6d6769f456ffaaa7c023040ee326785814d4decb58836e9fb3f9ffd395b484d16a5443d932084ea89ef2ea322ab2c09db
8c405d8e2d6eabbef45310c19b6b8ee5be7fd4e04021b921a344993c9d71a26267264e8bb4f2f5f959a5c1b36a1e7b1c9e5d036b36275f333ebbe6f93819e844
4cd06853ab5548841852d2bae25628720f25e094102b98002440000a911914027f0fa930676c64cba344993c9d71a26267264e8bb4f2f5f9bfe15d6092ca20fd
7cb86961b1d9e0f448145007386465db167e951ed918cd7127806d6587b4f094feb717b23ca5edd7cbbcdcf8bf29d931073898a1d16fb9f41f9fe9741e131d4a
b0fb847a3b385fda46b92e86e8aaa0ba856d9230a7ed0973023040ee326785814d4decb58836e9fb3f9ffd395b484d16a5443d932084ea89ef2ea322ab2c09db
daa809011f19a6e042efcf8bf49fd1983b80ac1888121a355fa5692fa00e15dfbf97e9cc400bbd5b1a0f4f711a1db5f52c97484dd1a20624e793d9102fa555a3
8f10d309634521e5a71cc1b59a10e9039a98713b750e7897b7414701a30abb5abf0faaedfc875062a86e643263d0b5f75f68e9d77354652d1a964c544a83d8a0
836b1094b37bfef146b92e86e8aaa0bae695fddc831d0f1c023040ee326785814d4decb58836e9fb3f9ffd395b484d16a5443d932084ea89ef2ea322ab2c09db
281c026029c854652b353e4191caa13fb5dd89e0eada5e2f653f886f76471a140a1b7b52a4a7583ef02b09116a7122acb2c8e92c1c352ef4983b413da9e4b3c4
8bff98f145bbffdcde407278591bf893f12dc1cd4f5bbd1b970729395fa5aff0a6d4990149c366b3f02b09116a7122acb2c8e92c1c352ef4983b413da9e4b3c4
a9d298bb70acb5acf45310c19b6b8ee54e43c6e795ceb6be006fd8f4a33ce7b7bf0faaedfc875062a86e643263d0b5f75f68e9d77354652d1a964c544a83d8a0
4f4f9ff1e68401aaccde9c518370a9020119b9489eec9bd1460d95b349f574d2706b807646b80371023040ee326785814d4decb58836e9fb3d30363881436cb1
95a38c0bf484b9678dc6150e9752de32e7176f31e5605d4448f3b44185d301da77524f290e81059b023040ee326785814d4decb58836e9fb3d30363881436cb1
8782f1c39799a5621b36a76c242b138ac342d976e2d60b85b286a0400261dae477650768851a0100b22b619134b389eba56e0c9a4d2c0834f2ae748158372a05
904e90e8e5b2fbfda71cc1b59a10e9036fd5bce168fccf64b7414701a30abb5abf0faaedfc875062a86e643263d0b5f75f68e9d77354652d1a964c544a83d8a0
bc79ddba924fd6b66f31076d2b37e96b40a7226c8e893e93a344993c9d71a26267264e8bb4f2f5f959a5c1b36a1e7b1c9e5d036b36275f333ebbe6f93819e844
b9ae3ed49b33ef9df45310c19b6b8ee5def53bcb933c6082b32500fc2043c0a24efe0cd80eca0d845fa5692fa00e15dfbf97e9cc400bbd5b5a96162f3c5ae6fb
2b76ba2308b7e6b182aefb8769a55e18caa18b32c7cb3fd8f82b2a2a09dd4d66c46c2824c9fff4521efda568f8b88501118fd7ffdb24f3c3960e6ea1c1da1c09
635adb6c201b6ba1aecfdb5e1a40f0108c75d703ed7db3553938a86cf3cb0a65bf0faaedfc875062a86e643263d0b5f75f68e9d77354652d1a964c544a83d8a0
c33d7a94b494464b6f31076d2b37e96b574a356ce4b06f885fa5692fa00e15dfbf97e9cc400bbd5b1a0f4f711a1db5f52c97484dd1a20624e793d9102fa555a3
926e9caa89fe3708f45310c19b6b8ee5f781e12679ed7e204c184d7a733c090eec3b77e0a3e1c5a0cf5e9389f2a48e3c073898a1d16fb9f41f9fe9741e131d4a
4aa74561b2f15095f45310c19b6b8ee5adada638b46b2ae5a344993c9d71a26267264e8bb4f2f5f959a5c1b36a1e7b1c9e5d036b36275f333ebbe6f93819e844
c7e7e79d641b837a118c532c51eaced0a6571dc5c50db9f3a344993c9d71a26267264e8bb4f2f5f959a5c1b36a1e7b1c9e5d036b36275f333ebbe6f93819e844
57a1528dc6fc191af45310c19b6b8ee559481f370456e98d687d14888b3fec06073898a1d16fb9f4fad40957470fd657e033f6c801a78952444d59d1ccc3c98d
172ebc888ce307f5625208ab2af5be52b312ebf73e385a50b7e3e4292ebc07eea2bcfa336bc8d6fa560552321d1cb488b63cd56cc48a12e8ca8e4da8a3893098
a3aae5a2addceb3b9fbfa9fbb8a333306241fb632702aee55f761e1a4f9db21167264e8bb4f2f5f959a5c1b36a1e7b1c9e5d036b36275f333ebbe6f93819e844
82ffa445b37280d7c502c707c7a3cfc363a66fb476b8e3cf32ce9c8cba5c885ca997e4709d030d51a344993c9d71a26267264e8bb4f2f5f9bfe15d6092ca20fd
7cb86961b1d9e0f448145007386465db167e951ed918cd7127806d6587b4f094feb717b23ca5edd7cbbcdcf8bf29d931073898a1d16fb9f41f9fe9741e131d4a
f197831ab997cb5146b92e86e8aaa0baf1b7ccb9ac612b80023040ee326785814d4decb58836e9fb3f9ffd395b484d16a5443d932084ea89ef2ea322ab2c09db
683f0afab66bd4982b353e4191caa13fb5dd89e0eada5e2f653f886f76471a14846d90c89d08d7eef02b09116a7122acb2c8e92c1c352ef4983b413da9e4b3c4
6574fb835fe903480930c8acfa113a6f1e78701ca0490e17271f12669a6277fb1b7efa2c4fa86b75a2bcfa336bc8d6fa560552321d1cb488984aaecf14c6ebe1
f77ae684f3bee76bf45310c19b6b8ee5bee48d2c54982c092365cb43df832d2f110da95e0625f202b22b619134b389eba56e0c9a4d2c0834f2ae748158372a05
31481da19e278b3c1951b3a43e5fda7eb9da5a323298879b0698bedf5fc2d78983f5907341564badfcb206a5fa22e498687b0ae91d18fa263bf01e23347d4ec3
21672b368d611c439ce94a35e56330bc5fa5692fa00e15dfbf97e9cc400bbd5b1a0f4f711a1db5f52c97484dd1a206240fed6b02881aea6c49802d4d7de7e928
8fa7e6595bf5a67ea2bcfa336bc8d6fa560552321d1cb488b63cd56cc48a12e80b789d05c59c2eab7c32beb9fb72457b027c17dcc314030ff03732a75f718ec5
706cbe236337354e769044945c5a111261d90810b63c4282a344993c9d71a26267264e8bb4f2f5f959a5c1b36a1e7b1c9e5d036b36275f333ebbe6f93819e844
c94861b9cdf63676d4dddbcfb70cc3775587916f02d77a4c58ca9c5ebcb0b05167264e8bb4f2f5f959a5c1b36a1e7b1c9e5d036b36275f333ebbe6f93819e844
8b0a1b2bb70ba090aecfdb5e1a40f010bad043d36138cf5a460d95b349f574d2706b807646b80371023040ee326785814d4decb58836e9fb3d30363881436cb1
955e9c115061f7d56f31076d2b37e96ba6571dc5c50db9f3a344993c9d71a26267264e8bb4f2f5f959a5c1b36a1e7b1c9e5d036b36275f333ebbe6f93819e844
cde4d26b358b4875ad0d410c5c14c377018b05945f92c825661c6c5a6c3f664f073898a1d16fb9f4fad40957470fd657e033f6c801a78952444d59d1ccc3c98d
efc8ebd2eb5bbe7cf45310c19b6b8ee5b0c2208c057436d1687d14888b3fec06073898a1d16fb9f4fad40957470fd657e033f6c801a78952444d59d1ccc3c98d
7c54dff84d438311f45310c19b6b8ee5d5a527a7ecd44b06973f27bf13045b53bf0faaedfc875062a86e643263d0b5f75f68e9d77354652d1a964c544a83d8a0
2b8d3c1572277b809ebea82edad950759c70a93173b8d58f48f3b44185d301da225920464fe5eb96023040ee326785814d4decb58836e9fb3d30363881436cb1
7cb86961b1d9e0f496fc3c27debc65bf1f1bfa482c1e92fc6ed39a523b0135da58dd2930668656a4b22b619134b389eba56e0c9a4d2c0834f2ae748158372a05
dd450011cca44d461852d2bae256287256a33d6a424c72b92440000a911914022732a933f9d24708a344993c9d71a26267264e8bb4f2f5f9bfe15d6092ca20fd
7cb86961b1d9e0f448145007386465db167e951ed918cd7127806d6587b4f094feb717b23ca5edd7cbbcdcf8bf29d931073898a1d16fb9f41f9fe9741e131d4a
6e07ca95bf59e24c1852d2bae256287263a66fb476b8e3cf2440000a91191402a997e4709d030d51a344993c9d71a26267264e8bb4f2f5f9bfe15d6092ca20fd
7cb86961b1d9e0f448145007386465db167e951ed918cd7127806d6587b4f094feb717b23ca5edd7cbbcdcf8bf29d931073898a1d16fb9f41f9fe9741e131d4a
0a09c50ac3eb1ddb2fbfcc2b872ff9469a73aa1a04aeb478ecd15350991019a3ebfbde9c40a762efd440be2779ae39dda344993c9d71a262a69b151d14b9482f
845d9a586189aae6735cc2a94a5a1d9b57d058f43e97a6b7970729395fa5aff0925457437fcd485887d2096317cad29b67264e8bb4f2f5f9bfe15d6092ca20fd
0a73c37a67ae1bcf8dc6150e9752de32898b282015b6f469c0a9224731a582b45fa5692fa00e15dfbf97e9cc400bbd5b1a0f4f711a1db5f556d3aadaf2c45348
2dbdd1f19d21f2c6f45310c19b6b8ee5adf742e229c36e265fa5692fa00e15dfbf97e9cc400bbd5b1a0f4f711a1db5f52c97484dd1a20624e793d9102fa555a3
ae4adb31e6cc5e90f45310c19b6b8ee5e9ade471b03b029d5fa5692fa00e15dfbf97e9cc400bbd5b1a0f4f711a1db5f52c97484dd1a20624e793d9102fa555a3
6d55b688263994cff45310c19b6b8ee5fad7b13ec8ec21505fa5692fa00e15dfbf97e9cc400bbd5b1a0f4f711a1db5f52c97484dd1a20624e793d9102fa555a3
32e8f00fa6aadb0e2fbfcc2b872ff9469a73aa1a04aeb478d19a8eef63f6676a08a0ef1d458827b4a18d3479f85e50a278e413f5bb25c9ced68e8f74855c7184
981655313fe0e30bf45310c19b6b8ee536b71d841c336efef174df7990b349d65fa5692fa00e15dfbf97e9cc400bbd5b1a0f4f711a1db5f556d3aadaf2c45348
1bc6275d0e1adda01b335ff66691221518f98fe42c707551ecd15350991019a3bedc0f29d2940b231ae7e86de5a53bf6bf0faaedfc875062f207eac3adf0662d
31481da19e278b3c16eb88e4e79e1000fe04cd99e29b63808be343c44a6ad57a3e545235d0f00f76a10ab49fa31ead27f33a7535b753e2640496aba1a20b409d
316271e02765c438bf0faaedfc875062a86e643263d0b5f75f68e9d77354652d71bddc6ec94254670d86c3071bdfcafd70abd15db0893c600be708b2d71050f0
d3f206ca50441f6cf45310c19b6b8ee5db676eb63cece20b5e26d75c63b144974dc962dac14ed0a6b22b619134b389eba56e0c9a4d2c0834f2ae748158372a05
fcfda7af8999f5d5f45310c19b6b8ee5bcb8845692cb2463661c6c5a6c3f664f073898a1d16fb9f4fad40957470fd657e033f6c801a78952444d59d1ccc3c98d
e3a4951a15bbf04bf45310c19b6b8ee5788247b56509fbc6d785d21ababb85bc423d30cc6693372767264e8bb4f2f5f959a5c1b36a1e7b1ca669c965f2fe877e
a819b7acc64ea453f45310c19b6b8ee509d43afa57774477d785d21ababb85bc423d30cc6693372767264e8bb4f2f5f959a5c1b36a1e7b1ca669c965f2fe877e
b0d3d1c4e169ca4a706b807646b80371e0ed2e2a3a7161f57f20537ce108d11aa60d4cc09ffef62c0df8e081aa3a65af5fa5692fa00e15df4db5522cb44f1b29
85adedd7c53238bff45310c19b6b8ee5f6b1e5eb398a1895661c6c5a6c3f664f073898a1d16fb9f4fad40957470fd657e033f6c801a78952444d59d1ccc3c98d
644727dbdf1373a4f45310c19b6b8ee50d1a4b4ccf9a8be2f4bd4addbcef76ae023040ee326785814d4decb58836e9fb3f9ffd395b484d1646127ddfe8bab81f
7cea6f37083889476f31076d2b37e96b8254bac5ba09e16813b1663dd85f362c9183e9179e2d0dc77f007a8b9df19fd0bdca261c428d1e377e157bb0bb7b4af5
f75fabf4fc9c089c46b92e86e8aaa0bad9ada98ed18f66592ce1cc5a89b7a0ca5fa5692fa00e15dfbf97e9cc400bbd5b1a0f4f711a1db5f556d3aadaf2c45348
43bcccf36927f563f45310c19b6b8ee5f2afbcda7658898e2ce1cc5a89b7a0ca5fa5692fa00e15dfbf97e9cc400bbd5b1a0f4f711a1db5f556d3aadaf2c45348
638b98468a100340118c532c51eaced012083d7c12678c59661c6c5a6c3f664f073898a1d16fb9f4fad40957470fd657e033f6c801a78952444d59d1ccc3c98d
53e25219de8bdd066f31076d2b37e96bcc7e1f1f840e9a83661c6c5a6c3f664f073898a1d16fb9f4fad40957470fd657e033f6c801a78952444d59d1ccc3c98d
0e4cb28663d007fff45310c19b6b8ee58497617087e57c7dcbf8c88b11c206bca3adc8d149ea4094a344993c9d71a26267264e8bb4f2f5f9bfe15d6092ca20fd
c0758198155a8c18f45310c19b6b8ee5c11d9e64fd0fb525661c6c5a6c3f664f073898a1d16fb9f4fad40957470fd657e033f6c801a78952444d59d1ccc3c98d
ed75c210a9f51c9af45310c19b6b8ee58996d8ad4ec5021ba23b202de15faffa68332164e87504e5f02b09116a7122acb2c8e92c1c352ef4983b413da9e4b3c4
44f117741689d591ba5eaa4b68130358e155ddf484313e2d77b521d5070430bcf02b09116a7122acb2c8e92c1c352ef4b835e6cd623a2023288b5cb125be07dd
24f667b3d19f6de2337243485dd64d510ffb76e2ddf4497ba7a7af11592fef700a60b21978926d5caab4682a49e9ad5aef5c4d9e98c3d408d3d79c309e00fe98
a7d14b727dc7d7d31e04a6a22e0b40b9b53e010da18a1e1de10f414a36c2498252288c6713f2bd2fc8d0fb7d767ad79b58b58148317651d230ec259bf1d37b8b
d7072740a938f0e79119f12b5e5dba4cc150e3ba08da98b228bcdc364cf87e1a1cf76dd633bb8834cfd44de642057e5a67264e8bb4f2f5f9bfe15d6092ca20fd
$CDNENCFINISH
.ends
*$
